*NODE, NSET=NAll
        3,            0.0,            0.0,           -1.5
        4,            0.0,            0.0,            0.0
        6,            1.0,            0.0,           -1.5
        8,            1.0,            0.0,            0.0
       12,            1.0,            8.0,            0.0
       14,            0.0,            8.0,            0.0
       18,            0.0,            8.0,           -1.5
       22,            1.0,            8.0,           -1.5
       28,            0.0,            0.0,        -1.3125
       29,            0.0,            0.0,         -1.125
       30,            0.0,            0.0,        -0.9375
       31,            0.0,            0.0,          -0.75
       32,            0.0,            0.0,        -0.5625
       33,            0.0,            0.0,         -0.375
       34,            0.0,            0.0,        -0.1875
       35,  0.833333333333,            0.0,           -1.5
       36,  0.666666666667,            0.0,           -1.5
       37,            0.5,            0.0,           -1.5
       38,  0.333333333333,            0.0,           -1.5
       39,  0.166666666667,            0.0,           -1.5
** ... 2040 like lines cut
*ELEMENT, ELSET=EALL, TYPE=C3D4
2657,          1706,          1798,          1361,          1033
2658,            45,          1014,            46,           252
2659,           681,           675,           682,          1525
2660,          1374,          1808,          1416,          1782
2661,          1764,          1393,          1436,          1738
2662,           657,           663,           656,          1378
2663,          1393,          1764,          1457,          1866
2664,          1365,          1911,          1488,          2035
2665,          1922,          1615,          1660,          1896
2666,          1483,          1821,          1513,          1819
2667,          1590,           516,          1714,          1933
2668,           912,          1645,           913,          1619
2669,          1370,          1114,          1583,          1107
2670,           840,          1642,           845,          1922
2671,          1885,          1550,          1521,          1887
2672,          1369,          1928,          1714,          1933
2673,            51,           283,            52,          1981
2674,           565,           564,          1505,          1475
2675,          1528,           324,           325,           320
2676,          1918,          1892,          1560,          1606
** ... 8000 like lines cut
*NSET, NSET=LAST
	4, 47, 48, 49, 50, 51, 8, 34, 278, 279, 280,
	281, 282, 40, 41, 277, 276, 275, 274, 273, 33,
	32, 268, 269, 270, 271, 272, 42, 31, 263, 264,
	265, 266, 267, 43, 44, 262, 261, 260, 259, 258,
	30, 29, 253, 254, 255, 256, 257, 45, 46, 252,
	251, 250, 249, 248, 28, 3, 39, 38, 37, 36, 35,
	6
*NSET, NSET=CN7
	44, 96, 95, 97, 98, 99, 12, 149, 1319, 1318,
	1317, 1316, 1315, 241, 148, 1324, 1323, 1322, 1321,
	1320, 242, 147, 1329, 1328, 1327, 1326, 1325, 243,
	146, 1334, 1333, 1332, 1331, 1330, 244, 145, 1339,
	1338, 1337, 1336, 1335, 245, 144, 1344, 1343, 1342,
	1341, 1340, 246, 143, 1349, 1348, 1347, 1346, 1345,
	247, 18, 197, 196, 195, 194, 193, 22
*BOUNDARY
CN7, 1, 3
*MATERIAL,NAME=EL
*ELASTIC
	210000,	0.3
*Density
7.8E-9
*SOLID SECTION, MATERIAL = EL, ELSET = EALL
*STEP
*static
*CLOAD
LAST, 2, -1
*NODE FILE,NSET=NALL
U
*EL FILE,ELSET=EALL
S
*EL FILE,ELSET=EALL
E
*END STEP
